[General]
sim-time-limit=1000s
repeat=2
network = NodeNetwork

NodeNetwork.receiver.sink.logFileName = "0"
