[General]
sim-time-limit=1000s

network = NodeNetwork

NodeNetwork.receiver.sink.logFileName = "0"
