[General]
sim-time-limit=100s
repeat=100
network = NodeNetwork

NodeNetwork.receiver.sink.logFileName = "0"
NodeNetwork.numTransmitters = ${repetition} + 1
